BASE CASE PROJECT/IEEE13Nodeckt.dss
Clear 

new circuit.IEEE13Nodeckt 
~ basekv=115 pu=1.000 phases=3 bus1=SourceBus  
~ Angle=30                  
                                       

New Transformer.Sub Phases=3 Windings=2 XHL=0.08
~ wdg=1 bus=SourceBus conn=delta kv=115 kva=5000 %r=1 
~ wdg=2 bus=650 conn=wye kv=4.16 kva=5000 %r=1  

New Transformer.Reg1 phases=1 bank=reg1 XHL=0.05 kVAs=[1666 1666]
~ Buses=[650.1 RG60.1] kVs=[2.4 2.4] conns=[wye wye]
New Regcontrol.Reg1 transformer=Reg1 winding=2 vreg=122 band=2 ptratio=20 ctprim=700 R=3 X=9 

New Transformer.Reg2 phases=1 bank=reg1 XHL=0.05 kVAs=[1666 1666]
~ Buses=[650.2 RG60.2] kVs=[2.4 2.4] conns=[wye wye]
New Regcontrol.Reg2 transformer=Reg2 winding=2 vreg=122 band=2 ptratio=20 ctprim=700 R=3 X=9 

New Transformer.Reg3 phases=1 bank=reg1 XHL=0.05 kVAs=[1666 1666]
~ Buses=[650.3 RG60.3] kVs=[2.4 2.4] conns=[wye wye]
New Regcontrol.Reg3 transformer=Reg3 winding=2 vreg=122 band=2 ptratio=20 ctprim=700 R=3 X=9 

New Transformer.XFM1 Phases=3 Windings=2 XHL=2
~ wdg=1 bus=633 conn=Wye kv=4.16 kva=500 %r=.55
~ wdg=2 bus=634 conn=Wye kv=0.48 kva=500 %r=.55

!---------------- LINE CODES ----------------

New Linecode.mtx601 nphases=3 units=mi
~ Rmatrix = (0.3465 | 0.1560 0.3375 | 0.1580 0.1535 0.3414)
~ Xmatrix = (1.0179 | 0.5017 1.0478 | 0.4236 0.3849 1.0348)

New Linecode.mtx602 nphases=3 units=mi
~ Rmatrix = (0.7526 | 0.1580 0.7475 | 0.1560 0.1535 0.7436)
~ Xmatrix = (1.1814 | 0.4236 1.1983 | 0.5017 0.3849 1.2112)

New Linecode.mtx603 nphases=2 units=mi
~ Rmatrix = (1.3238 | 0.2066 1.3294)
~ Xmatrix = (1.3569 | 0.4591 1.3471)

New Linecode.mtx604 nphases=2 units=mi
~ Rmatrix = (1.3238 | 0.2066 1.3294)
~ Xmatrix = (1.3569 | 0.4591 1.3471)

New Linecode.mtx605 nphases=1 units=mi
~ Rmatrix = (1.3292)
~ Xmatrix = (1.3475)

New Linecode.mtx606 nphases=3 units=mi
~ Rmatrix = (0.791721 | 0.318476 0.781649 | 0.28345 0.318476 0.791721)
~ Xmatrix = (0.438352 | 0.0276838 0.396697 | -0.0184204 0.0276838 0.438352)
~ Cmatrix = (383.948 | 0 383.948 | 0 0 383.948)

New Linecode.mtx607 nphases=1 units=mi
~ Rmatrix = (1.3425)
~ Xmatrix = (0.5124)
~ Cmatrix = (236)

!---------------- LOADS ----------------  
! 3-phase delta load at 671
New Load.671 Bus1=671.1.2.3 Phases=3 Conn=Delta kV=4.16 
~ kW=1155 kvar=660 Model=1


! Transformer secondary loads at 634 (0.48 kV)
New Load.634a Bus1=634.1 Phases=1 Conn=Wye kV=0.277 
~ kW=160 kvar=110

New Load.634b Bus1=634.2 Phases=1 Conn=Wye kV=0.277 
~ kW=120 kvar=90

New Load.634c Bus1=634.3 Phases=1 Conn=Wye kV=0.277 
~ kW=120 kvar=90


! Single-phase load at 645 (phase B)
New Load.645 Bus1=645.2 Phases=1 Conn=Wye kV=2.4 
~ kW=170 kvar=125


! Two-phase delta load at 646 (phases B-C)
New Load.646 Bus1=646.2.3 Phases=1 Conn=Delta kV=4.16 
~ kW=230 kvar=132


! Two-phase delta load at 692 (phases C-A)
New Load.692 Bus1=692.3.1 Phases=1 Conn=Delta kV=4.16 
~ kW=170 kvar=151


! Distributed loads at 675 (three separate single-phase loads)
New Load.675a Bus1=675.1 Phases=1 Conn=Wye kV=2.4 
~ kW=485 kvar=190

New Load.675b Bus1=675.2 Phases=1 Conn=Wye kV=2.4 
~ kW=68 kvar=60

New Load.675c Bus1=675.3 Phases=1 Conn=Wye kV=2.4 
~ kW=290 kvar=212


! Single-phase load at 611 (phase C)
New Load.611 Bus1=611.3 Phases=1 Conn=Wye kV=2.4 
~ kW=170 kvar=80


! Single-phase load at 652 (phase A)
New Load.652 Bus1=652.1 Phases=1 Conn=Wye kV=2.4 
~ kW=128 kvar=86
!---------------- CAPACITORS ----------------
New Capacitor.Cap1 Bus1=675 phases=3 kVAR=600 kV=4.16 
New Capacitor.Cap2 Bus1=611.3 phases=1 kVAR=100 kV=2.4 


!---------------- LINE DATA ----------------

! Main feeder
New Line.650632 Phases=3 Bus1=RG60.1.2.3 Bus2=632.1.2.3 LineCode=mtx601 Length=2000 units=ft

New Line.632671 Phases=3 Bus1=632.1.2.3 Bus2=671.1.2.3 LineCode=mtx601 Length=2000 units=ft

New Line.671680 Phases=3 Bus1=671.1.2.3 Bus2=680.1.2.3 LineCode=mtx601 Length=1000 units=ft


! Laterals
New Line.632633 Phases=3 Bus1=632.1.2.3 Bus2=633.1.2.3 LineCode=mtx602 Length=500 units=ft

New Line.632645 Phases=2 Bus1=632.3.2 Bus2=645.3.2 LineCode=mtx603 Length=500 units=ft

New Line.645646 Phases=2 Bus1=645.3.2 Bus2=646.3.2 LineCode=mtx603 Length=300 units=ft


! Downstream branches
New Line.671684 Phases=2 Bus1=671.1.3 Bus2=684.1.3 LineCode=mtx604 Length=300 units=ft

New Line.684611 Phases=1 Bus1=684.3 Bus2=611.3 LineCode=mtx605 Length=300 units=ft

New Line.684652 Phases=1 Bus1=684.1 Bus2=652.1 LineCode=mtx607 Length=800 units=ft


! Underground section
New Line.692675 Phases=3 Bus1=692.1.2.3 Bus2=675.1.2.3 LineCode=mtx606 Length=500 units=ft


! Switch (tie line)
New Line.671692 Phases=3 Bus1=671.1.2.3 Bus2=692.1.2.3 Switch=y r1=1e-4 x1=0

!---------------- 24-HOUR LOAD SHAPE ----------------
New Loadshape.Daily24 npts=24 interval=1
~ mult=(0.6 0.55 0.5 0.5 0.55 0.7 0.9 1.1 1.2 1.3 1.4 1.45 1.5 1.45 1.4 1.35 1.3 1.25 1.2 1.1 1.0 0.9 0.8 0.7)

! Apply loadshape to all loads (safe syntax)
BatchEdit Load.. daily=Daily24

!---------------- MONITORS ----------------
New Monitor.FeederPower Element=Line.650632 Terminal=1 Mode=1
New Monitor.FeederVoltage Element=Line.650632 Terminal=1 Mode=0
New Monitor.FeederVoltage_Recv Element=Line.650632 Terminal=2 Mode=0
New Monitor.Line632671_SendVolt Element=Line.632671 Terminal=1 Mode=0
New Monitor.Line632671_RecvVolt Element=Line.632671 Terminal=2 Mode=0

! Voltage at both ends of line 671–680 (for p.u.)
New Monitor.Line671680_SendVolt Element=Line.671680 Terminal=1 Mode=0
New Monitor.Line671680_RecvVolt Element=Line.671680 Terminal=2 Mode=0

! Apparent power on the lines
New Monitor.Line632671_Power Element=Line.632671 Terminal=1 Mode=1
New Monitor.Line671680_Power Element=Line.671680 Terminal=1 Mode=1



! Voltage at both ends of line 671–680 (for p.u.)
New Monitor.Line692675_SendVolt Element=Line.671680 Terminal=1 Mode=0
New Monitor.Line692675_RecvVolt Element=Line.671680 Terminal=2 Mode=0


!---------------- DAILY SIMULATION ----------------
Set Mode=Daily
Set Stepsize=1h
Set Number=24


Set Voltagebases=[115, 4.16, .48]
CalcVoltageBases

Set Controlmode=ON
Solve

Show Voltages 
Show losses
Export Monitor Line692675_SendVolt
Export Monitor Line692675_RecvVolt

!Show currents
Show Voltage LN nodes
!Show Monitor FeederPower
!Show Monitor FeederVoltage_Recv Element
!Show Monitor Line632671_SendVolt
!Show Monitor Line632671_RecvVolt
!Show Monitor Line632671_Power

!Show Monitor Line671680_SendVolt
!Show Monitor Line671680_RecvVolt
!Show Monitor Line671680_Power

Export Voltages 
Export losses
Export Voltage LN nodes
Export Monitor FeederVoltage
!Export Monitor Line632671_SendVolt
!Export Monitor Line632671_Power

!Export Monitor Line671680_SendVolt
!Export Monitor Line671680_Power
Export Monitor Line692675_SendVolt
Export Monitor Line692675_RecvVolt

