BASE CASE PROJECT/IEEE13Nodeckt_VLN_Node.Txt

LINE-GROUND and LINE-LINE VOLTAGES BY BUS & NODE

Bus       Node    VLN (kV)   Angle      pu     Base kV    Node-Node   VLL (kV)  Angle      pu

SOURCEBUS 1       66.345 /_   30.0   0.99925   115.000        1-2     114.93 /_   59.9    0.9994
   -      2       66.358 /_  -90.1   0.99944   115.000        2-3     114.92 /_  -60.1   0.99933
   -      3       66.341 /_  149.9   0.99918   115.000        3-1      114.9 /_  179.9   0.99914
650 ..... 1       2.3747 /_    0.2   0.98875     4.160        1-2      4.122 /_   30.2   0.99087
   -      2       2.3816 /_ -119.9   0.99162     4.160        2-3     4.1185 /_  -90.0   0.99003
   -      3       2.3757 /_  120.1   0.98914     4.160        3-1     4.1126 /_  150.2   0.98861
RG60 .... 1       2.3696 /_    0.2   0.98659     4.160        1-2     4.1147 /_   30.2   0.98912
   -      2       2.3778 /_ -119.9   0.99003     4.160        2-3     4.1105 /_  -89.9   0.98811
   -      3       2.3707 /_  120.2   0.98704     4.160        3-1     4.1036 /_  150.2   0.98643
633 ..... 1       2.2935 /_   -1.8   0.95491     4.160        1-2     4.0296 /_   29.0   0.96866
   -      2       2.3691 /_ -121.3    0.9864     4.160        2-3     4.0414 /_  -91.9    0.9715
   -      3       2.2968 /_  118.6    0.9563     4.160        3-1     3.9832 /_  148.4    0.9575
634 ..... 1      0.25984 /_   -2.3    0.9376     0.480        1-2     0.4572 /_   28.6   0.95249
   -      2      0.26962 /_ -121.7   0.97291     0.480        2-3    0.45983 /_  -92.2   0.95798
   -      3      0.26122 /_  118.3   0.94259     0.480        3-1    0.45248 /_  147.9   0.94266
671 ..... 1       2.2467 /_   -3.9   0.93545     4.160        1-2     3.9809 /_   28.3   0.95694
   -      2       2.3972 /_ -121.8   0.99809     4.160        2-3     4.0388 /_  -93.3   0.97087
   -      3       2.2464 /_  117.3   0.93532     4.160        3-1     3.9144 /_  146.7   0.94097
645 ..... 2       2.3565 /_ -121.4   0.98114     4.160        2-3      4.029 /_  -91.8   0.96852
   -      3       2.2981 /_  118.7   0.95684     4.160
646 ..... 2       2.3535 /_ -121.5   0.97991     4.160        2-3     4.0216 /_  -91.8   0.96673
   -      3       2.2946 /_  118.7   0.95539     4.160
692 ..... 1       2.2467 /_   -3.9   0.93543     4.160        1-2     3.9809 /_   28.3   0.95694
   -      2       2.3972 /_ -121.8   0.99811     4.160        2-3     4.0388 /_  -93.3   0.97087
   -      3       2.2464 /_  117.3   0.93531     4.160        3-1     3.9144 /_  146.7   0.94097
675 ..... 1       2.2364 /_   -4.1   0.93116     4.160        1-2     3.9751 /_   28.2   0.95555
   -      2       2.4019 /_ -122.0    1.0001     4.160        2-3     4.0382 /_  -93.4   0.97073
   -      3       2.2442 /_  117.3   0.93439     4.160        3-1     3.9073 /_  146.6   0.93926
611 ..... 3       2.2409 /_  117.1   0.93303     4.160
652 ..... 1       2.2334 /_   -3.8   0.92991     4.160
632 ..... 1       2.2987 /_   -1.7   0.95709     4.160        1-2     4.0374 /_   29.0   0.97052
   -      2       2.3725 /_ -121.3   0.98781     4.160        2-3     4.0489 /_  -91.8    0.9733
   -      3       2.3014 /_  118.6    0.9582     4.160        3-1     3.9908 /_  148.4   0.95932
680 ..... 1       2.2467 /_   -3.9   0.93545     4.160        1-2     3.9809 /_   28.3   0.95694
   -      2       2.3972 /_ -121.8   0.99809     4.160        2-3     4.0388 /_  -93.3   0.97087
   -      3       2.2464 /_  117.3   0.93532     4.160        3-1     3.9144 /_  146.7   0.94097
684 ..... 1       2.2433 /_   -3.9     0.934     4.160
   -      3       2.2437 /_  117.2   0.93417     4.160        3-1     3.9074 /_  146.7   0.93928
